Circuit: * C:\users\fabri\Documents\TC2\LTspice\TPS3_3.asc

Ignoring empty pin current: Ix(u1:1)
Ignoring empty pin current: Ix(u1:2)

Date: Fri Jun 09 19:32:27 2023
Total elapsed time: 0.100 seconds.

tnom = 27
temp = 27
method = trap
totiter = 0
traniter = 0
tranpoints = 0
accept = 0
rejected = 0
matrix size = 6
fillins = 1
solver = Normal

