Circuit: * C:\users\fabri\Mis Documentos\TC2\LTspice\TS5\TS5.asc

Ignoring empty pin current: Ix(u1:1)
Ignoring empty pin current: Ix(u1:2)
Ignoring empty pin current: Ix(u2:1)
Ignoring empty pin current: Ix(u2:2)

Date: Wed Jun 21 23:57:01 2023
Total elapsed time: 0.085 seconds.

tnom = 27
temp = 27
method = trap
totiter = 0
traniter = 0
tranpoints = 0
accept = 0
rejected = 0
matrix size = 8
fillins = 7
solver = Normal

