Circuit: * C:\users\fabri\Mis Documentos\TC2\LTspice\TS5\TS5_salidaPrimerOrden.asc

Ignoring empty pin current: Ix(u1:1)
Ignoring empty pin current: Ix(u1:2)
Ignoring empty pin current: Ix(u2:1)
Ignoring empty pin current: Ix(u2:2)

Date: Thu Jun 22 00:24:51 2023
Total elapsed time: 0.076 seconds.

tnom = 27
temp = 27
method = trap
totiter = 0
traniter = 0
tranpoints = 0
accept = 0
rejected = 0
matrix size = 8
fillins = 9
solver = Normal

