Circuit: * C:\users\fabri\Mis Documentos\TC2\git\tc2\LTspice\TS5\TS5_Schaumann.asc

Ignoring empty pin current: Ix(u1:1)
Ignoring empty pin current: Ix(u1:2)
Ignoring empty pin current: Ix(u2:1)
Ignoring empty pin current: Ix(u2:2)

Date: Sat Jun 24 18:53:48 2023
Total elapsed time: 0.126 seconds.

tnom = 27
temp = 27
method = trap
totiter = 0
traniter = 0
tranpoints = 0
accept = 0
rejected = 0
matrix size = 8
fillins = 6
solver = Normal

