Circuit: * C:\users\fabri\Mis Documentos\TC2\git\tc2\TrabajosSemanales\TS12\EJ1.asc


Date: Thu Nov 16 20:51:46 2023
Total elapsed time: 0.059 seconds.

tnom = 27
temp = 27
method = trap
totiter = 0
traniter = 0
tranpoints = 0
accept = 0
rejected = 0
matrix size = 3
fillins = 0
solver = Normal

