Circuit: * C:\users\fabri\Mis Documentos\TC2\git\tc2\LTspice\TS6\Draft1.asc


Date: Tue Oct 10 11:26:21 2023
Total elapsed time: 0.032 seconds.

tnom = 27
temp = 27
method = trap
totiter = 0
traniter = 0
tranpoints = 0
accept = 0
rejected = 0
matrix size = 4
fillins = 1
solver = Normal

