Circuit: * C:\users\fabri\Mis Documentos\TC2\git\tc2\LTspice\TS11\EJ1.asc

WARNING: Node N005 is floating.


Date: Sat Nov 04 18:59:02 2023
Total elapsed time: 0.069 seconds.

tnom = 27
temp = 27
method = trap
totiter = 0
traniter = 0
tranpoints = 0
accept = 0
rejected = 0
matrix size = 6
fillins = 0
solver = Normal

