Circuit: * C:\users\fabri\Mis Documentos\TC2\git\tc2\LTspice\TS11\EJ2_Z.asc

WARNING: Node N002 is floating.


Date: Sat Nov 04 20:31:27 2023
Total elapsed time: 0.035 seconds.

tnom = 27
temp = 27
method = trap
totiter = 0
traniter = 0
tranpoints = 0
accept = 0
rejected = 0
matrix size = 5
fillins = 1
solver = Normal

