Circuit: * C:\users\fabri\Mis Documentos\TC2\git\tc2\LTspice\TS11\EJ2_Y.asc


Date: Sat Nov 04 20:32:16 2023
Total elapsed time: 0.041 seconds.

tnom = 27
temp = 27
method = trap
totiter = 0
traniter = 0
tranpoints = 0
accept = 0
rejected = 0
matrix size = 4
fillins = 1
solver = Normal

