Circuit: * C:\users\fabri\Mis Documentos\TC2\git\tc2\LTspice\TS13\Bessel_PB_ord3_i5.asc


Date: Fri Nov 17 17:48:50 2023
Total elapsed time: 0.038 seconds.

tnom = 27
temp = 27
method = trap
totiter = 0
traniter = 0
tranpoints = 0
accept = 0
rejected = 0
matrix size = 3
fillins = 0
solver = Normal

